%nproc=16
%mem=60GB
# B3LYP/genecp em=GD3BJ int=fine
scrf=(smd,solvent=acetone)

Template

0 1
 Co        -1.2068004764       -0.1656716999       -0.6641862596
 N         -2.6250207808        1.0524538442       -0.4409037883
 O         -3.2376593583        1.7721567470       -1.4251127156
 C         -3.0418255501        1.1815692687        0.7775635284
 C         -4.1741868523        2.0635935227        1.1807821865
 H         -4.6768279921        2.4402257323        0.2937233220
 H         -3.7967889122        2.9062596730        1.7579771285
 H         -4.8793446441        1.5156823570        1.8013190644
 N         -1.3184563173       -0.2855337477        1.2151028673
 O         -0.5648508099       -1.0451903495        1.9440106089
 C         -2.2954843145        0.4039782263        1.7362904637
 C         -2.6141161909        0.4027805528        3.1977143707
 H         -2.6177592825        1.4173099441        3.5906565763
 H         -1.8567095793       -0.1836541888        3.7141378394
 H         -3.5912594072       -0.0420384565        3.3814495278
 N         -0.0054183249       -1.5856623788       -0.8909593031
 O          0.7027589255       -2.2106123882        0.0937355864
 C          0.1247960777       -2.0026361666       -2.1099840132
 C          0.9879394700       -3.1499635350       -2.5125751237
 H          1.3979361161       -3.6287839771       -1.6270672430
 H          1.8036274171       -2.7967982131       -3.1411738376
 H          0.4106930148       -3.8727963661       -3.0850509859
 N         -1.2995477902       -0.2506749660       -2.5484277639
 O         -2.0186066386        0.5439142653       -3.2775159159
 C         -0.6284777445       -1.2377757695       -3.0728332307
 C         -0.6131617687       -1.5413715690       -4.5368582560
 H         -1.2250647229       -0.8017947681       -5.0493159478
 H         -1.0171830685       -2.5337148477       -4.7309801430
 H          0.4021854594       -1.4999483182       -4.9261518001
 H         -2.8180025565        1.4101220869       -2.2990911004
 H          0.3179816157       -1.8126851053        0.9704418605
 C          0.1529840455        1.3452633783       -0.6610254455
 H          0.1756872871        1.6571829830       -1.7040556787
 H         -0.3220841711        2.0966925300       -0.0313873011
 C          1.4464490132        0.9316293920       -0.1543850389
 C          1.7220681979        1.1025989097        1.1657464778
 H          0.9558644116        1.5772133565        1.7667050345
 C          2.4576364706        0.4183474844       -1.1403065793
 H          3.4533317728        0.7648171779       -0.8744993751
 H          2.4716114929       -0.6684814510       -1.1568272203
 H          2.2132183815        0.7656241712       -2.1409498203
 C          2.9348815933        0.7990302002        1.8963692144
 C          3.2667496895        1.6050025449        2.9937192298
 C          3.7762327133       -0.2755661992        1.5930762976
 C          4.4140680815        1.3763742339        3.7255282303
 H          2.6183418734        2.4290594025        3.2555755137
 C          4.9155875421       -0.5116930894        2.3395107449
 H          3.5094081400       -0.9579693822        0.8046391728
 C          5.2488370674        0.3181534001        3.3978718641
 H          4.6587057273        2.0191486793        4.5589381539
 H          5.5481986959       -1.3531534606        2.0963383060
 H          6.1449326346        0.1351313748        3.9723798909

-H -C -N -O -S -Br -F -Cl 0
6-31G(d)
****
-Co 0
lanl2dz
****

-Co 0
lanl2dz

