%nproc=16
%mem=60GB
# B3LYP/genecp em=GD3BJ int=fine
scrf=(smd,solvent=acetone)

Template

0 1
 Co        -1.0601776195       -0.6559670950       -0.5378291309
 N         -0.8007505082        1.1965234687       -0.3082935755
 O          0.0777530227        1.9839042762       -0.9918571882
 C         -1.5920386321        1.7495395663        0.5540968157
 C         -1.6160130629        3.2132709639        0.8409773803
 H         -1.6226549912        3.3924750345        1.9131231501
 H         -2.5161813036        3.6589327692        0.4190824957
 H         -0.7464748688        3.6849494067        0.3900044143
 N         -2.2828155066       -0.4247965547        0.8715029328
 O         -2.9752825002       -1.3867742241        1.3958744104
 C         -2.4578225307        0.8158861311        1.2329236414
 C         -3.4510241179        1.2382966679        2.2685939001
 H         -4.0376080588        0.3688039500        2.5582916539
 H         -4.1129271911        2.0085520583        1.8779057882
 H         -2.9468210477        1.6304500525        3.1505878794
 N         -1.5559013646       -2.4135530817       -0.9673037466
 O         -2.3589106402       -3.2286514727       -0.2251957068
 C         -1.1001769539       -2.8483294441       -2.0981241728
 C         -1.4143926194       -4.1932837998       -2.6588680790
 H         -0.5262453633       -4.8222738950       -2.6244606098
 H         -1.7304483545       -4.1080899137       -3.6958278531
 H         -2.1995066457       -4.6596745084       -2.0694248144
 N         -0.0375693521       -0.8057050371       -2.1209801483
 O          0.7442486464        0.1221981823       -2.5764775611
 C         -0.2219898484       -1.9218650962       -2.7699984684
 C          0.4343271637       -2.2351616482       -4.0768927647
 H          1.0941241498       -1.4101424715       -4.3379499100
 H         -0.3086777650       -2.3574827616       -4.8636433289
 H          1.0146282493       -3.1528086760       -4.0047067799
 H          0.4971169145        1.3451260224       -1.6895865501
 H         -2.6973456713       -2.6188639270        0.5426686765
 C          0.4095636069       -1.3531552399        0.6655078570
 H         -0.1099035323       -2.0322177131        1.3400895821
 H          1.0563698430       -1.8906345897       -0.0272065679
 C          1.0843070329       -0.2666058783        1.3466613017
 C          2.1619800582        0.3123805840        0.7499026109
 H          2.4640224710       -0.1074831544       -0.2020432959
 C          0.5875514739        0.1069551274        2.7139916255
 H          0.0151797270       -0.7125146766        3.1409705023
 H          1.4212901988        0.3392751464        3.3718254852
 H         -0.0688258424        0.9737933978        2.6652733787
 C          3.0137033325        1.3903654602        1.2010373551
 C          2.6137221847        2.4018589959        2.0806607126
 C          4.3198052161        1.4469939801        0.6924664640
 C          3.4901755807        3.4036354939        2.4535504163
 H          1.6017693610        2.4311851117        2.4438563491
 C          5.1967010334        2.4393953682        1.0786791301
 H          4.6435050947        0.6877655271       -0.0049694606
 C          4.7873782467        3.4226137702        1.9674993519
 H          3.1578117432        4.1795179148        3.1281075890
 H          6.2017011986        2.4544507277        0.6822633272
 H          5.4705644279        4.2032657675        2.2677910745

-H -C -N -O -S -Br -F -Cl 0
6-31G(d)
****
-Co 0
lanl2dz
****

-Co 0
lanl2dz

