%nproc=16
%mem=60GB
# B3LYP/genecp em=GD3BJ int=fine
scrf=(smd,solvent=acetone)

Template

0 1
 Co        -1.3118425769       -0.0382271302       -0.3846354101
 N         -2.8007589597        1.0986006847       -0.5077500484
 O         -2.9567886961        2.1257344291       -1.3923680036
 C         -3.7529394496        0.8494068094        0.3325833461
 C         -5.0365781583        1.6050549761        0.3815238699
 H         -5.0620582909        2.2257870628        1.2758379164
 H         -5.8801941865        0.9201749285        0.4188090176
 H         -5.1165484349        2.2453245474       -0.4932446399
 N         -2.2650160297       -0.7315033921        1.0977521139
 O         -1.8328419829       -1.6873764194        1.8607462083
 C         -3.4529780693       -0.2179009756        1.2558322584
 C         -4.4134328821       -0.6659347520        2.3108165873
 H         -3.9296121745       -1.4297777510        2.9162608379
 H         -5.3125437546       -1.0860896553        1.8622414492
 H         -4.7019038928        0.1690308728        2.9460017153
 N          0.0147279166       -1.3718678040       -0.4104942624
 O          0.2667508858       -2.2809931213        0.5741765846
 C          0.7024653083       -1.4287705318       -1.5046059799
 C          1.7631771013       -2.4404507984       -1.7728967588
 H          1.6181017108       -2.8927962569       -2.7511171566
 H          1.7393016457       -3.2073950382       -1.0032355044
 H          2.7400845478       -1.9597734594       -1.7609095812
 N         -0.5401832080        0.4379757500       -2.0266929077
 O         -0.9308740384        1.4423110885       -2.7485266891
 C          0.3743357826       -0.3897808572       -2.4494259902
 C          1.0505970795       -0.2620482082       -3.7767681329
 H          0.6916276348        0.6428460477       -4.2628021927
 H          0.8229766201       -1.1180356244       -4.4106115187
 H          2.1295830348       -0.2024851284       -3.6520656946
 H         -2.1588715942        2.0189326557       -2.0450398160
 H         -0.5194359651       -2.1552913583        1.2374251325
 C         -0.2904237574        1.3434575435        0.7042162397
 H         -0.6714149001        2.2908179124        0.3246362432
 H         -0.6375987537        1.1388185535        1.7168548720
 C          1.1519546419        1.2440169417        0.5780164808
 C          1.8385903752        0.4174603679        1.4086550351
 H          1.2509055522       -0.1935911751        2.0822567323
 C          1.8040556038        2.0941220795       -0.4743244354
 H          2.7120906950        1.6323386716       -0.8518177855
 H          1.1191661878        2.2626806067       -1.3000727027
 H          2.0569046704        3.0684525135       -0.0572365324
 C          3.2632050522        0.1581320838        1.4714000230
 C          3.6779609247       -1.1330554972        1.8237411510
 C          4.2457967929        1.1219714761        1.2278126131
 C          5.0178027719       -1.4599688099        1.8754842194
 H          2.9285552531       -1.8839969149        2.0278042683
 C          5.5875496394        0.7946314417        1.2999079638
 H          3.9605442117        2.1407805503        1.0250282658
 C          5.9806973092       -0.4973421249        1.6094419918
 H          5.3166006740       -2.4662780758        2.1312868911
 H          6.3331364212        1.5546724697        1.1155795508
 H          7.0296686581       -0.7503305226        1.6560106435

-H -C -N -O -S -Br -F -Cl 0
6-31G(d)
****
-Co 0
lanl2dz
****

-Co 0
lanl2dz

