%nproc=16
%mem=60GB
# B3LYP/genecp em=GD3BJ int=fine
scrf=(smd,solvent=acetone)

Template

0 1
 Co        -1.2637432289       -0.0647969857       -0.5041808142
 N         -2.8433742143        0.9463453367       -0.4583778874
 O         -3.3080231194        1.7605741856       -1.4484410762
 C         -3.5488642168        0.8085435410        0.6179669703
 C         -4.8611650109        1.4783768514        0.8434816806
 H         -4.7506181297        2.2579708914        1.5956766720
 H         -5.5971233655        0.7624878565        1.2013792155
 H         -5.2037144304        1.9304931279       -0.0836950596
 N         -1.7758662668       -0.5132181730        1.2581240678
 O         -1.0827386918       -1.2708484725        2.0503798679
 C         -2.9360372042       -0.0367052932        1.6140001263
 C         -3.5696418600       -0.3112736483        2.9404963389
 H         -3.7839926710        0.6187737521        3.4629222468
 H         -2.8814847726       -0.9091902176        3.5346475708
 H         -4.5015083669       -0.8613627060        2.8177512041
 N          0.1423328838       -1.3123276217       -0.6321566836
 O          0.6635539157       -2.0453388017        0.3912441836
 C          0.6039902487       -1.4907183291       -1.8273597280
 C          1.6840524273       -2.4593934778       -2.1689009746
 H          1.2947834034       -3.2422325457       -2.8179947147
 H          2.0715275150       -2.9073843051       -1.2577504184
 H          2.4877259021       -1.9517263655       -2.6969814910
 N         -0.9102010769        0.1681354565       -2.3384956567
 O         -1.5455569439        1.0043510055       -3.1000706820
 C         -0.0129333711       -0.6458693244       -2.8211781519
 C          0.3649753194       -0.6926421548       -4.2673700990
 H          1.4117019993       -0.4244217720       -4.3997682954
 H         -0.2560545652        0.0167712679       -4.8107561190
 H          0.2113694158       -1.6904218619       -4.6741991873
 H         -2.6563107907        1.5961830160       -2.2381251878
 H          0.0527162910       -1.8144080993        1.1961935572
 C         -0.1908956041        1.5575181320        0.0667711793
 H         -0.4132815236        2.2951059956       -0.7036238997
 H         -0.6380090691        1.8256961988        1.0237898509
 C          1.2249040492        1.2604733646        0.1721533059
 C          1.7132110818        0.7376809696        1.3276864974
 H          0.9879092382        0.4853500509        2.0914927766
 C          2.0728036800        1.5567489429       -1.0317260067
 H          1.4755127487        1.4704174842       -1.9351455437
 H          2.4451667778        2.5793368008       -0.9806372380
 H          2.9200348723        0.8797546018       -1.0947060810
 C          3.0751145763        0.3829668891        1.6698380400
 C          4.2008832523        1.0726847222        1.2092470865
 C          3.2743718660       -0.6930835242        2.5448063262
 C          5.4722639423        0.6781205898        1.5832637395
 H          4.0804800253        1.9482913657        0.5935476824
 C          4.5457234059       -1.0945272497        2.9009571109
 H          2.4143531532       -1.2263046658        2.9216504822
 C          5.6531065204       -0.4127210282        2.4181055328
 H          6.3297650662        1.2283952051        1.2234235164
 H          4.6773392107       -1.9375676687        3.5638696435
 H          6.6483214245       -0.7220375771        2.7017614326

-H -C -N -O -S -Br -F -Cl 0
6-31G(d)
****
-Co 0
lanl2dz
****

-Co 0
lanl2dz

