%nproc=16
%mem=60GB
# B3LYP/genecp em=GD3BJ int=fine
scrf=(smd,solvent=acetone)

Template

0 1
 Co        -1.2901718943       -0.0273473301       -0.4365390614
 N         -2.8254132765        1.0472093913       -0.5127851512
 O         -3.0932965768        1.9998977419       -1.4512751598
 C         -3.6982722149        0.8246140976        0.4165264635
 C         -5.0034173477        1.5371103828        0.5173192809
 H         -5.8100988375        0.8313939690        0.6989654723
 H         -5.1899881546        2.0874807533       -0.4013615133
 H         -4.9723671967        2.2413201794        1.3474929470
 N         -2.0980249288       -0.6554919381        1.1551671174
 O         -1.5701037159       -1.5422812532        1.9413099607
 C         -3.2843958588       -0.1647390573        1.3817655974
 C         -4.1338074209       -0.5624917636        2.5464706637
 H         -4.4203919773        0.3112591706        3.1278217864
 H         -3.5619441208       -1.2434543116        3.1737573434
 H         -5.0388214523       -1.0673848489        2.2111496102
 N          0.0829170681       -1.3160018925       -0.4865741966
 O          0.4272489470       -2.1679266396        0.5198822975
 C          0.7179019159       -1.3901584756       -1.6109678361
 C          1.8183697647       -2.3579516091       -1.8809877887
 H          1.8402522454       -3.1117290901       -1.0981224172
 H          2.7729793288       -1.8339096104       -1.8852859537
 H          1.6832357872       -2.8312236051       -2.8502645389
 N         -0.6466985706        0.3841969775       -2.1524546452
 O         -1.1306269819        1.3264056742       -2.9014493248
 C          0.2856155929       -0.4184040816       -2.5853994122
 C          0.8780885691       -0.3286162313       -3.9554236325
 H          1.9590275156       -0.2209857186       -3.8987797508
 H          0.4530834838        0.5365598956       -4.4604300522
 H          0.6492405503       -1.2223109542       -4.5345702539
 H         -2.3364830762        1.8849249689       -2.1509827358
 H         -0.3120914642       -2.0218951049        1.2326374638
 C         -0.2695580763        1.4710096454        0.4792120646
 H         -0.5768511657        2.3620601901       -0.0670358107
 H         -0.6792646627        1.4508020313        1.4889216537
 C          1.1681138329        1.2737946079        0.4539289186
 C          1.7565576728        0.5134411985        1.4122388842
 H          1.1003879298        0.0241583335        2.1212123796
 C          1.9279414336        1.9449999305       -0.6543050108
 H          2.2041280723        2.9545959935       -0.3516620170
 H          2.8334710640        1.3995027207       -0.9041714181
 H          1.3035589524        2.0297133001       -1.5389110067
 C          3.1586871558        0.1755816329        1.5670872980
 C          3.4798921619       -1.1104478239        2.0186003506
 C          4.2037579657        1.0679069177        1.3143254296
 C          4.7953180252       -1.5022664889        2.1651636395
 H          2.6800012869       -1.8071932509        2.2213186064
 C          5.5197783010        0.6770179316        1.4821009981
 H          3.9842153546        2.0834951890        1.0282940431
 C          5.8228181651       -0.6101054419        1.8956805215
 H          5.0238010041       -2.5045095727        2.4979239051
 H          6.3154404286        1.3827232103        1.2911475772
 H          6.8520807461       -0.9137644102        2.0182523245

-H -C -N -O -S -Br -F -Cl 0
6-31G(d)
****
-Co 0
lanl2dz
****

-Co 0
lanl2dz

