%nproc=16
%mem=60GB
# B3LYP/genecp em=GD3BJ int=fine
scrf=(smd,solvent=acetone)

Template

0 1
 Co        -1.0419340178       -0.3848936715       -0.8057415031
 N         -1.5076004216        1.3904352490       -0.3933635157
 O         -1.7448001134        2.3910536322       -1.2937468799
 C         -1.6055188909        1.6548444001        0.8697003817
 C         -1.9836091873        2.9897858994        1.4141727668
 H         -2.2861477843        3.6447191503        0.6011449748
 H         -1.1311998031        3.4300273215        1.9291194586
 H         -2.7967151280        2.8905986242        2.1297281640
 N         -0.9091764545       -0.5278217145        1.0839902272
 O         -0.5709834608       -1.6110233262        1.7142383046
 C         -1.2820361643        0.5424720040        1.7277228857
 C         -1.3435308533        0.6328479224        3.2188482307
 H         -2.3624012860        0.8242588306        3.5527753743
 H         -0.7044394576        1.4358319134        3.5804910466
 H         -1.0046487067       -0.3122639648        3.6376626070
 N         -0.8222621675       -2.2125318385       -1.1631289531
 O         -0.4186195603       -3.1661583455       -0.2763769739
 C         -1.1114953320       -2.5698754558       -2.3737147480
 C         -1.0328821115       -3.9739504921       -2.8677367585
 H         -1.9604168267       -4.2554676605       -3.3605991631
 H         -0.8394447647       -4.6438202084       -2.0339498093
 H         -0.2238217113       -4.0642295857       -3.5908031519
 N         -1.4829193145       -0.3135941331       -2.6314119142
 O         -1.8171648946        0.7726970286       -3.2484961282
 C         -1.5078962023       -1.4750353645       -3.2239252397
 C         -1.8999104172       -1.6626108283       -4.6546285447
 H         -2.0900761152       -0.6844624251       -5.0914765827
 H         -2.8022012755       -2.2673787375       -4.7330288288
 H         -1.1039504318       -2.1567695570       -5.2078282300
 H         -1.7898994448        1.9026562012       -2.2020390045
 H         -0.4152809987       -2.6739678918        0.6360099004
 C          0.8668910478        0.0977178545       -1.2765093716
 H          1.1533115710       -0.6278454248       -2.0366192223
 H          0.7721937319        1.0976206670       -1.6984935665
 C          1.7073055108        0.0459826661       -0.0960280309
 C          1.9295697254        1.1863785645        0.6105021785
 H          1.5000987179        2.0979028188        0.2111810864
 C          2.3463756375       -1.2691272256        0.2389430834
 H          2.4287031385       -1.8852085162       -0.6525424508
 H          3.3352980994       -1.1210844977        0.6649920158
 H          1.7380718623       -1.8144105809        0.9585719315
 C          2.7195797128        1.3798410710        1.8083444581
 C          2.8803518151        0.4023819790        2.7961716742
 C          3.3223815712        2.6283532158        2.0152298341
 C          3.6394195175        0.6562057549        3.9232945524
 H          2.3698629066       -0.5410021781        2.7051479429
 C          4.0924281167        2.8720423301        3.1342204663
 H          3.1932888982        3.4027342355        1.2724182052
 C          4.2607717463        1.8831562441        4.0924627759
 H          3.7453450255       -0.1098993292        4.6778309290
 H          4.5605772307        3.8367873841        3.2663068176
 H          4.8611238834        2.0728969462        4.9699196413

-H -C -N -O -S -Br -F -Cl 0
6-31G(d)
****
-Co 0
lanl2dz
****

-Co 0
lanl2dz

