%nproc=16
%mem=60GB
# B3LYP/genecp em=GD3BJ int=fine
scrf=(smd,solvent=acetone)

Template

0 1
 Co        -1.3263717940       -0.2024217294       -0.2421148455
 N         -2.4606390531        1.2769584104       -0.4513526701
 O         -2.1796746218        2.4202901232       -1.1396701113
 C         -3.6224734220        1.1545966965        0.1074192865
 C         -4.6946335618        2.1872495550        0.0337825210
 H         -4.8304302335        2.6462552731        1.0118254348
 H         -5.6378584799        1.7339888349       -0.2616813432
 H         -4.4130246233        2.9560270414       -0.6811492315
 N         -2.7313578829       -0.8388185209        0.8321308710
 O         -2.7067530995       -1.9759769487        1.4485286912
 C         -3.7881739985       -0.0752036473        0.8420023149
 C         -5.0500623496       -0.4238231943        1.5644125933
 H         -5.8761524505       -0.5456982933        0.8653108497
 H         -5.3117128487        0.3564283683        2.2760423305
 H         -4.8951695369       -1.3603683163        2.0961922164
 N         -0.3094088172       -1.7856723483       -0.2390402042
 O         -0.4780236917       -2.8500522488        0.6004240553
 C          0.6194136744       -1.8430494550       -1.1380988489
 C          1.5210163867       -3.0134495525       -1.3324412077
 H          1.5318399980       -3.3143516718       -2.3775563842
 H          1.1847061173       -3.8412961366       -0.7136844354
 H          2.5366483817       -2.7447438459       -1.0463041109
 N         -0.0800453816        0.3052933708       -1.5734658251
 O         -0.0735055386        1.4594047001       -2.1690291842
 C          0.7418144971       -0.6428171942       -1.9269301714
 C          1.7495507492       -0.4968919485       -3.0216705834
 H          2.7557428833       -0.6504409179       -2.6367818157
 H          1.6702063438        0.5067820519       -3.4344766435
 H          1.5676912451       -1.2215576833       -3.8139199144
 H         -1.2907081639        2.2084322045       -1.6272119863
 H         -1.3718248480       -2.6520495293        1.0769071999
 C         -0.4159950047        0.5311538194        1.4110408981
 H         -1.0630417878        1.3430891087        1.7402623867
 H         -0.4505755771       -0.3127960526        2.0989485384
 C          0.9349175049        0.9637442973        1.1064951711
 C          1.9598212562        0.0886558358        1.2845755008
 H          1.7097114650       -0.8760294187        1.7103376677
 C          1.1257787311        2.3905113469        0.6835918259
 H          0.3646388463        3.0179501530        1.1408056640
 H          2.1078503749        2.7545624254        0.9720933927
 H          1.0204785726        2.4906397929       -0.3958882315
 C          3.3728225964        0.2690510893        1.0249117080
 C          4.2930116311       -0.4361885791        1.8120923142
 C          3.8695485813        1.0678406523       -0.0101453625
 C          5.6516247970       -0.3110241578        1.6043656152
 H          3.9254918189       -1.0731905294        2.6038554480
 C          5.2307878983        1.1773747894       -0.2255070803
 H          3.1849374560        1.5668041505       -0.6754415849
 C          6.1281957943        0.5016771176        0.5861196705
 H          6.3444474397       -0.8523668395        2.2322017375
 H          5.5951556507        1.7927995979       -1.0354164937
 H          7.1909157537        0.5969756067        0.4194396571

-H -C -N -O -S -Br -F -Cl 0
6-31G(d)
****
-Co 0
lanl2dz
****

-Co 0
lanl2dz

