%nproc=16
%mem=60GB
# B3LYP/genecp em=GD3BJ int=fine
scrf=(smd,solvent=acetone)

Template

0 1
 Co        -0.8074805224        0.2670526530       -0.0600103762
 N         -2.5176307609        0.8435396730       -0.5901436030
 O         -2.7767261683        1.7100014241       -1.6120151476
 C         -3.4952515504        0.4912500490        0.1893235049
 C         -4.9112555993        0.9130960912       -0.0124723985
 H         -5.5233353052        0.0505900092       -0.2702329942
 H         -4.9647523893        1.6419468308       -0.8160805875
 H         -5.3046188983        1.3462947211        0.9041739513
 N         -1.7900910339       -0.5261226526        1.3180145353
 O         -1.2295506543       -1.3433431180        2.1527793728
 C         -3.0847843261       -0.3565329124        1.2679003863
 C         -4.0397744146       -1.0045771731        2.2187694382
 H         -3.4728476409       -1.6236354127        2.9111562727
 H         -4.7526808294       -1.6273722418        1.6819401829
 H         -4.5917786809       -0.2531589178        2.7805045613
 N         -0.0919824386       -1.5070336692       -0.5524716551
 O         -0.0773596767       -2.6343830160        0.2401790112
 C          0.6573515266       -1.4899213889       -1.6088477382
 C          1.4811875782       -2.6437532318       -2.0710563854
 H          2.5063943586       -2.3250551100       -2.2455247173
 H          1.0813569528       -3.0335845007       -3.0058739315
 H          1.4642563684       -3.4310710652       -1.3222987805
 N         -0.0969262621        0.6833770469       -1.7643716779
 O         -0.3459404996        1.8104090099       -2.3505021490
 C          0.6034354403       -0.2542706129       -2.3418286735
 C          1.2555307595       -0.0787391537       -3.6768270549
 H          1.0122638910        0.9133644124       -4.0518054715
 H          0.8996631636       -0.8266239939       -4.3828282005
 H          2.3369216605       -0.1724750390       -3.5894788717
 H         -1.8627229882        1.9256620332       -2.0277490856
 H         -0.5230568361       -2.3385218274        1.1024192872
 C         -0.6384223810        2.0428248324        0.8635120654
 H         -0.9797872348        2.9496715078        0.3753568201
 H         -1.0771654230        1.9073387506        1.8494651818
 C          0.7620739027        1.7563588707        0.7309100634
 C          1.2341349536        0.6067249150        1.3323685721
 H          0.5994055137        0.1055497236        2.0574922057
 C          1.5876408160        2.6514482313       -0.1472299558
 H          2.4414106331        2.1319520603       -0.5744326447
 H          0.9773471784        3.0470506399       -0.9571344188
 H          1.9438546707        3.4955630957        0.4430799002
 C          2.5969165734        0.0831245904        1.2913888316
 C          2.7963111450       -1.3006397676        1.3305803078
 C          3.7254859525        0.9073687882        1.2815426019
 C          4.0672627668       -1.8393592750        1.2955378094
 H          1.9418538539       -1.9578502286        1.3728845954
 C          4.9976674358        0.3645799205        1.2633485063
 H          3.6120272599        1.9774498001        1.3385843325
 C          5.1763079194       -1.0087032696        1.2518121969
 H          4.1941404412       -2.9121432251        1.3097459808
 H          5.8560597385        1.0207442116        1.2619711766
 H          6.1709356309       -1.4286338373        1.2264611772

-H -C -N -O -S -Br -F -Cl 0
6-31G(d)
****
-Co 0
lanl2dz
****

-Co 0
lanl2dz

