%nproc=16
%mem=60GB
# B3LYP/genecp em=GD3BJ int=fine
scrf=(smd,solvent=acetone)

Template

0 1
 Co        -1.2625088598       -0.0605461450       -0.4939184851
 N         -2.8186858260        0.9857302131       -0.5405403562
 O         -3.2170803551        1.7920799099       -1.5657649351
 C         -3.5775469526        0.8824533766        0.5029703593
 C         -4.8853924760        1.5820607250        0.6517087254
 H         -5.1690624870        2.0301663014       -0.2970486297
 H         -4.7986169154        2.3675396911        1.4008047239
 H         -5.6541105420        0.8852979615        0.9772423941
 N         -1.8643735697       -0.4604832215        1.2533443740
 O         -1.2245222198       -1.2134391554        2.0920776413
 C         -3.0309135481        0.0457076551        1.5431739036
 C         -3.7332846676       -0.1890173845        2.8425836149
 H         -4.6701118443       -0.7216560028        2.6852098617
 H         -3.9521273297        0.7553135918        3.3368425014
 H         -3.0875365206       -0.7895726279        3.4801469726
 N          0.1065349797       -1.3552501672       -0.5335242755
 O          0.5666183268       -2.0825798753        0.5239438266
 C          0.5962345194       -1.5871152630       -1.7090801573
 C          1.6336727036       -2.6221885920       -1.9875536575
 H          2.4196254133       -2.2154898931       -2.6187309557
 H          1.1844172887       -3.4661641801       -2.5098705631
 H          2.0547728756       -2.9742311507       -1.0491104400
 N         -0.8244157996        0.1227780633       -2.3128436568
 O         -1.3976249722        0.9633644419       -3.1157564693
 C          0.0529895774       -0.7405372758       -2.7436244968
 C          0.4759298555       -0.8383382191       -4.1751281695
 H          1.5198329163       -0.5504393169       -4.2906434253
 H         -0.1407882001       -0.1620225127       -4.7635680017
 H          0.3549549636       -1.8544030421       -4.5452892937
 H         -2.5325629226        1.5977633437       -2.3206425068
 H         -0.0531673122       -1.8085786139        1.3058472302
 C         -0.1807147191        1.5520100181        0.0766863710
 H         -0.4269635804        2.3048497352       -0.6707083175
 H         -0.6050334598        1.7965869185        1.0499320062
 C          1.2325524559        1.2376539081        0.1347595481
 C          1.7515280555        0.7650431452        1.3011644188
 H          1.0608485514        0.6824621709        2.1317676214
 C          2.0545363596        1.5228722238       -1.0895085351
 H          3.0221064355        1.9332527902       -0.8114560394
 H          2.2150079192        0.6160424580       -1.6695880309
 H          1.5379374948        2.2328919537       -1.7301389580
 C          3.1048180160        0.3824672459        1.6368572522
 C          3.4786347087        0.4247030439        2.9883674806
 C          4.0562194599       -0.0630585937        0.7129939573
 C          4.7525896698        0.0811906103        3.3908022193
 H          2.7534574373        0.7456803115        3.7223345267
 C          5.3272920911       -0.4209436241        1.1216101271
 H          3.7921409650       -0.1699259711       -0.3240564610
 C          5.6878665609       -0.3396978601        2.4567862567
 H          5.0196588614        0.1334343689        4.4364236114
 H          6.0437974243       -0.7695944397        0.3918422474
 H          6.6845092217       -0.6135614441        2.7698717123

-H -C -N -O -S -Br -F -Cl 0
6-31G(d)
****
-Co 0
lanl2dz
****

-Co 0
lanl2dz

