%nproc=16
%mem=60GB
# B3LYP/genecp em=GD3BJ int=fine
scrf=(smd,solvent=acetone)

Template

0 1
 Co        -1.2578186265       -0.0646826767       -0.5139132354
 N         -2.8390387939        0.9423750558       -0.4492695987
 O         -3.3242485796        1.7455935296       -1.4383183924
 C         -3.5255824044        0.8108917194        0.6400837481
 C         -4.8368941998        1.4770796805        0.8816497073
 H         -4.7155365363        2.2697323686        1.6183674384
 H         -5.5612393438        0.7632685620        1.2661611691
 H         -5.2007223884        1.9122964935       -0.0455135384
 N         -1.7372074680       -0.4996387946        1.2604158238
 O         -1.0277224349       -1.2478979110        2.0467279812
 C         -2.8921638713       -0.0229659913        1.6327625628
 C         -3.5003955235       -0.2864256172        2.9733444334
 H         -2.7979038158       -0.8731713829        3.5618305644
 H         -4.4305666350       -0.8439971129        2.8735567311
 H         -3.7116356028        0.6481755162        3.4888299938
 N          0.1476385611       -1.3113840384       -0.6578506251
 O          0.6882136913       -2.0368629423        0.3610846243
 C          0.5856327628       -1.5002533887       -1.8603859312
 C          1.6572486232       -2.4735134128       -2.2152812757
 H          2.0621586203       -2.9146199963       -1.3084413054
 H          2.4508735287       -1.9718134816       -2.7637644858
 H          1.2536845532       -3.2610200002       -2.8497527163
 N         -0.9374099525        0.1551346929       -2.3565884962
 O         -1.5866795934        0.9853349126       -3.1131630995
 C         -0.0492846753       -0.6628435156       -2.8492829709
 C          0.3010331906       -0.7219374163       -4.3020002716
 H          0.1341942860       -1.7218792435       -4.6984725848
 H          1.3464796087       -0.4605287878       -4.4564992055
 H         -0.3267001432       -0.0131976941       -4.8386291431
 H         -2.6839004225        1.5785690280       -2.2372577697
 H          0.0945375828       -1.7984134160        1.1757226366
 C         -0.1789438833        1.5637459506        0.0278073255
 H         -0.3903226419        2.2843605477       -0.7614881258
 H         -0.6308655178        1.8581485816        0.9747882514
 C          1.2331658565        1.2568000506        0.1507736213
 C          1.7077162725        0.7587738339        1.3230466735
 H          0.9736535036        0.5329205498        2.0867154281
 C          2.0922828566        1.5141104032       -1.0540665943
 H          1.4989294267        1.4162463421       -1.9589162640
 H          2.4795592913        2.5319122496       -1.0231844394
 H          2.9295072484        0.8232953286       -1.0967710366
 C          3.0621061969        0.3986427008        1.6873599502
 C          4.2014101503        1.0559429898        1.2127164458
 C          3.2391882672       -0.6490591358        2.6009083027
 C          5.4639412213        0.6561363600        1.6103885013
 H          4.0990241616        1.9114635167        0.5663175824
 C          4.5016360888       -1.0562611683        2.9810348787
 H          2.3685300905       -1.1556857309        2.9898813513
 C          5.6225321884       -0.4077574330        2.4836393297
 H          6.3321872514        1.1811376142        1.2386392745
 H          4.6158356475       -1.8774501264        3.6739022725
 H          6.6109488483       -0.7215201104        2.7855905369

-H -C -N -O -S -Br -F -Cl 0
6-31G(d)
****
-Co 0
lanl2dz
****

-Co 0
lanl2dz

