%nproc=16
%mem=60GB
# B3LYP/genecp em=GD3BJ int=fine
scrf=(smd,solvent=acetone)

Template

0 1
 Co        -1.3255209399       -0.2374756962       -0.2443298616
 N         -2.3795319986        1.3050598553       -0.3997831952
 O         -2.0339813313        2.4584223407       -1.0398690978
 C         -3.5481707338        1.2234443860        0.1522384546
 C         -4.5615741337        2.3159511427        0.1213751569
 H         -5.5255046698        1.9298618973       -0.2014342466
 H         -4.2319469192        3.1007539793       -0.5545360057
 H         -4.6809445153        2.7349412198        1.1192918459
 N         -2.7688416845       -0.8441239347        0.7937127614
 O         -2.8102144247       -2.0080445057        1.3560720318
 C         -3.7838346732       -0.0262691578        0.8317659568
 C         -5.0685906241       -0.3390866764        1.5299124913
 H         -5.8938754111       -0.3849671716        0.8208018326
 H         -5.2946911497        0.4213119180        2.2744836277
 H         -4.9684003873       -1.3055021761        2.0196629867
 N         -0.3861253367       -1.8664603879       -0.2936855443
 O         -0.6058686096       -2.9477879931        0.5125018438
 C          0.5471355654       -1.9361821928       -1.1872897324
 C          1.4001359144       -3.1378198191       -1.4091243594
 H          1.4230708570       -3.3979810259       -2.4647709860
 H          1.0135822619       -3.9730482336       -0.8307988945
 H          2.4193280251       -2.9255180421       -1.0894645037
 N         -0.0463289987        0.2564193228       -1.5545412058
 O          0.0142170783        1.4259977467       -2.1153142408
 C          0.7277123131       -0.7195260026       -1.9390670712
 C          1.7386880730       -0.5913367220       -3.0331685497
 H          1.7302270540        0.4349940038       -3.3942587955
 H          1.4994069933       -1.2591520032       -3.8597406687
 H          2.7332285423       -0.8372344532       -2.6670005105
 H         -1.1608073405        2.2152098365       -1.5413828628
 H         -1.4987873238       -2.7302902658        0.9811257177
 C         -0.4003808954        0.3802274133        1.4462417278
 H         -1.0701854009        1.1298395474        1.8654544783
 H         -0.3797804437       -0.5213785639        2.0573587246
 C          0.9197795343        0.8997206154        1.1447072091
 C          1.9893569187        0.0643273354        1.2361045660
 H          1.7862348117       -0.9423420728        1.5829002197
 C          1.0278572838        2.3595905544        0.8175323952
 H          1.9606560436        2.7734366807        1.1910478041
 H          0.9854041516        2.5131985529       -0.2600343268
 H          0.1950763868        2.9040443004        1.2550136508
 C          3.3917225274        0.3248941733        0.9928526808
 C          3.8652244030        1.2798936163        0.0865081059
 C          4.3358716620       -0.4580746145        1.6728716171
 C          5.2226035447        1.4604857272       -0.1040722681
 H          3.1701730478        1.8509227826       -0.5047854025
 C          5.6897570007       -0.2642294667        1.4908693717
 H          3.9895878667       -1.2141181010        2.3631729541
 C          6.1412782548        0.7021483387        0.6038387924
 H          5.5671853491        2.1982763793       -0.8142872247
 H          6.3987085488       -0.8702763589        2.0362160501
 H          7.2004770150        0.8534060081        0.4572888849

-H -C -N -O -S -Br -F -Cl 0
6-31G(d)
****
-Co 0
lanl2dz
****

-Co 0
lanl2dz

