%nproc=16
%mem=60GB
# B3LYP/genecp em=GD3BJ int=fine
scrf=(smd,solvent=acetone)

Template

0 1
 Co        -1.3009750179       -0.0306392011       -0.4040636753
 N         -2.8122766268        1.0759878056       -0.5113012898
 O         -3.0155908532        2.0728319604       -1.4202271027
 C         -3.7342449604        0.8326602526        0.3637814307
 C         -5.0305834674        1.5650626497        0.4289507267
 H         -5.0313504463        2.2313154622        1.2903948935
 H         -5.8574527926        0.8676150982        0.5369261035
 H         -5.1596104066        2.1585457978       -0.4726151112
 N         -2.1951808566       -0.7005434835        1.1242236749
 O         -1.7211432039       -1.6255410473        1.9004580812
 C         -3.3856587395       -0.2014455669        1.3075730148
 C         -4.3017650314       -0.6327261696        2.4080312447
 H         -3.7769865054       -1.3543549760        3.0309365786
 H         -5.1984355690       -1.1007879286        2.0039732433
 H         -4.6000533919        0.2196401042        3.0147361411
 N          0.0460546998       -1.3459035808       -0.4388141149
 O          0.3355153427       -2.2335831762        0.5547555145
 C          0.7106891548       -1.4102940915       -1.5466433610
 C          1.7851954575       -2.4066578339       -1.8174706007
 H          2.7539923874       -1.9096093724       -1.8198604593
 H          1.6376502380       -2.8713120782       -2.7894278471
 H          1.7832030953       -3.1656329630       -1.0395066133
 N         -0.5803438190        0.4215056688       -2.0764704209
 O         -1.0070848530        1.4032488890       -2.8089315967
 C          0.3410780827       -0.3964933974       -2.5035731645
 C          0.9848002873       -0.2818002361       -3.8482507633
 H          0.5943128269        0.6041826825       -4.3447857443
 H          0.7631395786       -1.1559311695       -4.4589696643
 H          2.0646273465       -0.1950280251       -3.7492424168
 H         -2.2313531260        1.9672615536       -2.0897479772
 H         -0.4302622766       -2.0988562151        1.2403821065
 C         -0.2840841607        1.4066378408        0.6121220251
 H         -0.6351292544        2.3332072052        0.1594583505
 H         -0.6588654843        1.2803022009        1.6276927219
 C          1.1575774447        1.2641048371        0.5262073228
 C          1.8027088296        0.4616416868        1.4114644986
 H          1.1847794190       -0.0978087378        2.1026151033
 C          1.8558922878        2.0412356796       -0.5526570922
 H          2.1201634202        3.0308861088       -0.1811997471
 H          2.7628686811        1.5409675594       -0.8801959285
 H          1.1956278313        2.1795873484       -1.4037188130
 C          3.2181421728        0.1639581378        1.5101458810
 C          3.5898644286       -1.1279986253        1.9039795456
 C          4.2303681406        1.0944796401        1.2599025339
 C          4.9192694127       -1.4880727729        1.9930819053
 H          2.8161315477       -1.8534862026        2.1088590314
 C          5.5612042415        0.7344640430        1.3697889067
 H          3.9756133713        2.1139920459        1.0220575030
 C          5.9128171735       -0.5581888058        1.7232773892
 H          5.1857741969       -2.4947382835        2.2811646681
 H          6.3305984584        1.4691961903        1.1806907863
 H          6.9534318998       -0.8370786845        1.8000889820

-H -C -N -O -S -Br -F -Cl 0
6-31G(d)
****
-Co 0
lanl2dz
****

-Co 0
lanl2dz

