%nproc=16
%mem=60GB
# B3LYP/genecp em=GD3BJ int=fine
scrf=(smd,solvent=acetone)

Template

0 1
 Co        -1.3491741066       -0.1182099295       -0.3108408023
 N         -2.7510161799        1.1128037985       -0.5604330172
 O         -2.7645360991        2.1536110973       -1.4437353673
 C         -3.7931648390        0.9133588675        0.1808464964
 C         -5.0291294734        1.7437073747        0.1180997753
 H         -5.9096777078        1.1096398098        0.0477864517
 H         -4.9804723315        2.4071265450       -0.7415632227
 H         -5.1135700638        2.3434850373        1.0229920942
 N         -2.4869398239       -0.7674803078        1.0562658972
 O         -2.1914692609       -1.7594064315        1.8374277161
 C         -3.6493282047       -0.1799251351        1.1109521199
 C         -4.7318302951       -0.5772123512        2.0629189667
 H         -5.6106284106       -0.9300174097        1.5250856068
 H         -5.0229962363        0.2665396202        2.6851168060
 H         -4.3575713139       -1.3796006042        2.6954921314
 N         -0.1032081956       -1.5195383869       -0.2259196391
 O         -0.0058700499       -2.4561826462        0.7614948629
 C          0.6960224408       -1.5965847010       -1.2402745233
 C          1.7225562742       -2.6625338589       -1.4145020949
 H          1.6780085431       -3.0727260997       -2.4204228826
 H          1.5569279486       -3.4516819385       -0.6855167597
 H          2.7150891656       -2.2416178291       -1.2608789666
 N         -0.3865292315        0.3380665883       -1.8549376832
 O         -0.6483491784        1.3712480973       -2.5935333398
 C          0.5316965216       -0.5243789758       -2.1898866741
 C          1.3669206709       -0.4021227013       -3.4235326956
 H          1.1702352053       -1.2255430190       -4.1088489330
 H          2.4244811921       -0.4095550870       -3.1684251768
 H          1.1194018582        0.5352517855       -3.9173370015
 H         -1.9132225149        2.0073715967       -2.0145416055
 H         -0.8468070839       -2.2958256160        1.3445135783
 C         -0.3305903929        1.1074308308        0.9546790043
 H         -0.8292142393        2.0665119941        0.8174256863
 H         -0.5551284164        0.6645038573        1.9248189726
 C          1.0980389545        1.1986655456        0.7068947076
 C          1.9366891068        0.3232973272        1.3185985790
 H          1.4782219826       -0.4691249998        1.8974440918
 C          1.5630884969        2.2925246642       -0.2099429680
 H          1.6812187250        3.2208514971        0.3480738057
 H          2.5111696280        2.0426234347       -0.6773916498
 H          0.8252449485        2.4708928516       -0.9869730902
 C          3.3828726660        0.2425023914        1.2590406052
 C          4.2247352639        1.3530514606        1.1489617746
 C          3.9739815961       -1.0242318846        1.3549884685
 C          5.5975654982        1.1948466230        1.0935858302
 H          3.8068803439        2.3459386582        1.1521926395
 C          5.3433521587       -1.1793858068        1.2815150556
 H          3.3377940304       -1.8900372216        1.4692550225
 C          6.1632087738       -0.0688640366        1.1434829686
 H          6.2321463221        2.0657390178        1.0144681390
 H          5.7771953182       -2.1671861243        1.3403562559
 H          7.2353357845       -0.1877948871        1.0913165752

-H -C -N -O -S -Br -F -Cl 0
6-31G(d)
****
-Co 0
lanl2dz
****

-Co 0
lanl2dz

