%nproc=16
%mem=60GB
# B3LYP/genecp em=GD3BJ int=fine
scrf=(smd,solvent=acetone)

Template

0 1
 Co        -1.0543467940       -0.6427175932       -0.5802481878
 N         -0.7615250075        1.1870200071       -0.2377640284
 O          0.0745887025        2.0114226717       -0.9290055475
 C         -1.4631844934        1.6778819058        0.7316317294
 C         -1.4205410820        3.1066943684        1.1532750466
 H         -1.1055924409        3.1776003649        2.1921682499
 H         -2.4088105486        3.5548657170        1.0681174064
 H         -0.7186598731        3.6503554656        0.5266806969
 N         -2.1689074348       -0.5059171992        0.9282583723
 O         -2.8350596043       -1.4993458817        1.4304021341
 C         -2.2926535088        0.7040635744        1.3988119162
 C         -3.1906723267        1.0566687158        2.5412970861
 H         -3.9365867077        1.7880072069        2.2347400874
 H         -2.6159829610        1.4758389195        3.3650099137
 H         -3.6941024639        0.1527100787        2.8783440944
 N         -1.5777921128       -2.3725871275       -1.0834165280
 O         -2.3183086214       -3.2386667921       -0.3345373382
 C         -1.2018393847       -2.7360019462       -2.2673283393
 C         -1.5436377261       -4.0507788689       -2.8804501704
 H         -0.6558487057       -4.6806034853       -2.9139061807
 H         -1.9033433293       -3.9152125223       -3.8973745113
 H         -2.3026179132       -4.5463688746       -2.2805661943
 N         -0.1569061632       -0.6851157310       -2.2437753720
 O          0.5810030610        0.2790291186       -2.7006223640
 C         -0.3826051008       -1.7606332866       -2.9451657593
 C          0.1744220831       -1.9851899776       -4.3146872615
 H          0.8125373529       -1.1416376569       -4.5703073804
 H         -0.6251827665       -2.0600313008       -5.0502708873
 H          0.7588236894       -2.9024680035       -4.3451048685
 H          0.4044162115        1.4238981500       -1.7173860500
 H         -2.6092581137       -2.6773265592        0.4874950602
 C          0.5115595874       -1.4085819682        0.4558408511
 H          0.0553876523       -2.1756986294        1.0807181652
 H          1.1321429453       -1.8413197689       -0.3286510120
 C          1.2095710219       -0.3988458273        1.2296884855
 C          2.1745136701        0.3513768798        0.6378395926
 H          2.3205752622        0.2108763106       -0.4260873668
 C          0.8090596127       -0.2489557225        2.6696196851
 H          1.3899153527       -0.9326210556        3.2878500421
 H          0.9739235264        0.7646015771        3.0239171961
 H         -0.2387040013       -0.5077259544        2.7928991597
 C          2.9944717309        1.3967178223        1.2185274883
 C          3.3368617497        2.4917337513        0.4155858076
 C          3.4890007768        1.3565992480        2.5252097813
 C          4.1009314969        3.5269280580        0.9153429428
 H          2.9684191393        2.5315510805       -0.5985485500
 C          4.2706732453        2.3866962892        3.0153078176
 H          3.2987239736        0.4956020656        3.1445451051
 C          4.5701334418        3.4808700542        2.2198927119
 H          4.3401188491        4.3712506611        0.2849631487
 H          4.6519987882        2.3344750395        4.0249809622
 H          5.1749730789        4.2868625501        2.6086858865

-H -C -N -O -S -Br -F -Cl 0
6-31G(d)
****
-Co 0
lanl2dz
****

-Co 0
lanl2dz

