%nproc=16
%mem=60GB
# B3LYP/genecp em=GD3BJ int=fine
scrf=(smd,solvent=acetone)

Template

0 1
 Co        -1.2477155684       -0.0760642654       -0.5462439986
 N         -2.8151244293        0.9493410623       -0.4179188492
 O         -3.3452849877        1.7383167536       -1.3954475742
 C         -3.4398050303        0.8505724364        0.7113023121
 C         -4.7259461008        1.5402360307        1.0148809049
 H         -4.5608324216        2.3122338595        1.7647268926
 H         -5.4516281861        0.8331571613        1.4100725368
 H         -5.1144842410        2.0021031123        0.1110526571
 N         -1.6357190978       -0.4722944089        1.2585950829
 O         -0.8967430210       -1.2179905352        2.0193234651
 C         -2.7629688443        0.0266793566        1.6833662910
 C         -3.3017387111       -0.2062812803        3.0588980842
 H         -3.4460780257        0.7385598472        3.5791359573
 H         -2.5887632884       -0.8160043160        3.6102550563
 H         -4.2571459247       -0.7270378612        3.0175894360
 N          0.1359638432       -1.3381327236       -0.7403488225
 O          0.7245399858       -2.0497786757        0.2617473133
 C          0.4999862525       -1.5611391273       -1.9618384591
 C          1.5322981391       -2.5611958550       -2.3568335088
 H          2.3122883712       -2.0810344293       -2.9432686945
 H          1.0829501858       -3.3422963977       -2.9680416490
 H          1.9671269859       -3.0063126329       -1.4659055096
 N         -1.0249557122        0.1062870603       -2.4082089821
 O         -1.7032088963        0.9313645235       -3.1442912298
 C         -0.1760693737       -0.7337211473       -2.9318855924
 C          0.0940482905       -0.8254754922       -4.3999967303
 H         -0.5502613280       -0.1158054862       -4.9152490434
 H         -0.1106757787       -1.8292762704       -4.7678669708
 H          1.1336065360       -0.5853163629       -4.6161015546
 H         -2.7489285968        1.5515150312       -2.2227170369
 H          0.1792294632       -1.7903647461        1.1031644382
 C         -0.1278061966        1.5529198058       -0.0966600417
 H         -0.3019761966        2.2195908165       -0.9405454624
 H         -0.5881076886        1.9303039437        0.8162712125
 C          1.2712518940        1.2148507310        0.0797754270
 C          1.7081759242        0.8098508610        1.3017028214
 H          0.9513476711        0.6723086157        2.0639699662
 C          2.1590643060        1.3395066550       -1.1252124368
 H          1.5762535479        1.1884243511       -2.0298626074
 H          2.5855229764        2.3409828932       -1.1711202384
 H          2.9683629231        0.6154493740       -1.0942604460
 C          3.0423387019        0.4561230241        1.7375462805
 C          4.2128551092        1.0223045063        1.2226879906
 C          3.1652757017       -0.4809344597        2.7726613951
 C          5.4520609873        0.6393407569        1.7018331024
 H          4.1537647488        1.7974407781        0.4774182116
 C          4.4045130193       -0.8728345467        3.2356586367
 H          2.2700604069       -0.9141005158        3.1939722885
 C          5.5566033912       -0.3169557200        2.6988955309
 H          6.3448068884        1.0938935250        1.2968832491
 H          4.4763468638       -1.6085411580        4.0237591579
 H          6.5271226653       -0.6175740834        3.0653645843

-H -C -N -O -S -Br -F -Cl 0
6-31G(d)
****
-Co 0
lanl2dz
****

-Co 0
lanl2dz

