%nproc=16
%mem=60GB
# B3LYP/genecp em=GD3BJ int=fine
scrf=(smd,solvent=acetone)

Template

0 1
 Co        -1.0758453127       -0.6385211520       -0.5325487022
 N         -0.8811178285        1.1983901480       -0.1600564140
 O         -0.0508805435        2.0724205914       -0.7972880236
 C         -1.6719809802        1.6491086357        0.7604883831
 C         -1.7470769794        3.0834743481        1.1637075122
 H         -1.7188209681        3.1775221170        2.2464285343
 H         -2.6817857101        3.5187939747        0.8121204598
 H         -0.9171935426        3.6285589110        0.7209160261
 N         -2.2725540652       -0.5688668605        0.9161022519
 O         -2.9141354009       -1.5965727412        1.3764329750
 C         -2.4840174007        0.6307499448        1.3814290967
 C         -3.4635967176        0.9290852769        2.4716736638
 H         -4.0130671411        0.0180704366        2.7000260243
 H         -4.1607676298        1.7055678240        2.1635274148
 H         -2.9494944590        1.2629891400        3.3717254977
 N         -1.5154454766       -2.3746259347       -1.0924934563
 O         -2.2736005481       -3.2758143513       -0.4048105378
 C         -1.0648138881       -2.7014127417       -2.2610746941
 C         -1.3373588477       -4.0098855326       -2.9211793127
 H         -0.4238731113       -4.6015340758       -2.9548350795
 H         -1.6803388733       -3.8563329995       -3.9416070575
 H         -2.0893157366       -4.5540458191       -2.3557131775
 N         -0.0823770568       -0.6221975377       -2.1406602676
 O          0.6525491333        0.3693475037       -2.5359457286
 C         -0.2360654382       -1.6910675251       -2.8720780071
 C          0.4057871992       -1.8744615688       -4.2104744774
 H         -0.3473369964       -1.9637539243       -4.9920337567
 H          1.0219438359       -2.7712765285       -4.2210676551
 H          1.0283406645       -1.0059490800       -4.4161284016
 H          0.3779530854        1.5075452176       -1.5510020208
 H         -2.6145105993       -2.7438862063        0.4175746469
 C          0.4423916788       -1.3751269287        0.5831130358
 H         -0.0459889964       -2.0912278003        1.2424471023
 H          1.0695643945       -1.8725219356       -0.1560612282
 C          1.1312698297       -0.3142879531        1.2903696425
 C          2.1830075880        0.3014086528        0.6846456794
 H          2.4547932818       -0.0696478185       -0.2962084696
 C          0.6808584519       -0.0090033882        2.6903618881
 H          0.1377188591       -0.8559569662        3.1016589500
 H          1.5352212289        0.2088288979        3.3262963505
 H          0.0102582659        0.8481335536        2.7042443419
 C          3.0441835477        1.3619566751        1.1592317639
 C          4.3370975072        1.4431516229        0.6214852483
 C          2.6640416891        2.3338394480        2.0905304596
 C          5.2218984642        2.4202134089        1.0282528311
 H          4.6446148925        0.7147456879       -0.1150679768
 C          3.5479836069        3.3210803820        2.4840977478
 H          1.6606782394        2.3451484898        2.4779995544
 C          4.8329057764        3.3636791346        1.9678264695
 H          6.2169786514        2.4543936807        0.6086506045
 H          3.2311759109        4.0670969291        3.1986289363
 H          5.5221852518        4.1325220264        2.2842544973

-H -C -N -O -S -Br -F -Cl 0
6-31G(d)
****
-Co 0
lanl2dz
****

-Co 0
lanl2dz

