%nproc=16
%mem=60GB
# B3LYP/genecp em=GD3BJ int=fine
scrf=(smd,solvent=acetone)

Template

0 1
 Co        -1.0443632096       -0.6579871099       -0.5802930018
 N         -0.7352417786        1.1801381438       -0.3032503429
 O          0.1027887158        1.9736632190       -1.0274018866
 C         -1.4268071133        1.7094245541        0.6530478825
 C         -1.3692718910        3.1514000095        1.0249426943
 H         -0.9598449132        3.2576944218        2.0276721460
 H         -2.3671838885        3.5847965512        1.0185267642
 H         -0.7324460876        3.6834420058        0.3233036945
 N         -2.1431715743       -0.4618103528        0.9325356929
 O         -2.8101292354       -1.4330524828        1.4754106372
 C         -2.2566868532        0.7648561172        1.3604720472
 C         -3.1432192080        1.1626868820        2.4970630861
 H         -3.9100570948        1.8598613391        2.1629552085
 H         -2.5644107286        1.6393497184        3.2855598431
 H         -3.6231741585        0.2692327067        2.8914931374
 N         -1.5850559437       -2.3996304044       -1.0201603723
 O         -2.3232177154       -3.2347510490       -0.2345236723
 C         -1.2254208512       -2.8046136766       -2.1956044222
 C         -1.5847070384       -4.1352319949       -2.7628518087
 H         -1.9783359838       -4.0253194263       -3.7704530667
 H         -2.3233464607       -4.6156356083       -2.1264507131
 H         -0.6975959020       -4.7648843981       -2.8107627647
 N         -0.1661420685       -0.7617482406       -2.2518880851
 O          0.5723298272        0.1818868347       -2.7490299965
 C         -0.4071920549       -1.8582349690       -2.9145702717
 C          0.1322311787       -2.1322169069       -4.2820936953
 H         -0.6764161850       -2.2261237678       -5.0054708895
 H          0.7101133710       -3.0541006066       -4.2885160014
 H          0.7730011629       -1.3022593442       -4.5731184776
 H          0.4176696964        1.3590080442       -1.8016175611
 H         -2.6014788348       -2.6440143753        0.5711751442
 C          0.5269546215       -1.3993651602        0.4665244071
 H          0.0773091846       -2.1675636958        1.0947747299
 H          1.1538372462       -1.8296712215       -0.3142831075
 C          1.2131761398       -0.3792879094        1.2375134239
 C          2.1722883335        0.3775399916        0.6449545076
 H          2.3240618972        0.2325371134       -0.4175268047
 C          0.8083306249       -0.2275446867        2.6760413149
 H          1.3925476777       -0.9055744874        3.2973332138
 H          0.9659238268        0.7878706494        3.0282522489
 H         -0.2378288154       -0.4928849828        2.7984896889
 C          2.9776263801        1.4358022579        1.2231895645
 C          3.4734313088        1.4047237754        2.5295494285
 C          3.3027426917        2.5346568052        0.4184315900
 C          4.2404029008        2.4468068723        3.0175910957
 H          3.2959100534        0.5417959479        3.1500667266
 C          4.0522749649        3.5814835158        0.9161147837
 H          2.9316972876        2.5680038926       -0.5950233054
 C          4.5234485454        3.5439378046        2.2202262042
 H          4.6231595410        2.4016013324        4.0270581294
 H          4.2783593390        4.4284937114        0.2845137795
 H          5.1168462724        4.3591705548        2.6073850410

-H -C -N -O -S -Br -F -Cl 0
6-31G(d)
****
-Co 0
lanl2dz
****

-Co 0
lanl2dz

