%nproc=16
%mem=60GB
# B3LYP/genecp em=GD3BJ int=fine
scrf=(smd,solvent=acetone)

Template

0 1
 Co        -1.2797776282       -0.0634812036       -0.4645353316
 N         -2.8515828509        0.9596787066       -0.4940286742
 O         -3.2377738499        1.8123021348       -1.4855805012
 C         -3.6308391065        0.7957437252        0.5262613071
 C         -4.9489526226        1.4735438953        0.6830622651
 H         -4.8813822281        2.2303062398        1.4631561322
 H         -5.7138495816        0.7562259470        0.9703621190
 H         -5.2244195244        1.9557358811       -0.2513093109
 N         -1.9181280971       -0.5649928745        1.2427613962
 O         -1.2884359416       -1.3571124551        2.0544178200
 C         -3.0963477873       -0.0886554352        1.5333374350
 C         -3.8231934973       -0.4006475475        2.8024285325
 H         -4.0695468285        0.5138601371        3.3379306256
 H         -3.1813879455       -1.0217578837        3.4240504375
 H         -4.7465473014       -0.9403279502        2.5968663977
 N          0.1253786501       -1.3178451913       -0.5323767170
 O          0.5737710561       -2.0807011740        0.5036506344
 C          0.6683348331       -1.4634089644       -1.6972529880
 C          1.7696394193       -2.4236061560       -1.9910347214
 H          2.6362419352       -1.8889758982       -2.3737262714
 H          1.4534466334       -3.1401765907       -2.7469944821
 H          2.0442276264       -2.9517118540       -1.0818986166
 N         -0.7999332422        0.2196406169       -2.2608918671
 O         -1.3780608616        1.0817635448       -3.0390504985
 C          0.1231476984       -0.5871939436       -2.7054796299
 C          0.5984485662       -0.5949167767       -4.1232499619
 H          1.6592422835       -0.3564298000       -4.1730085850
 H          0.0370000242        0.1517628858       -4.6812920965
 H          0.4437901207       -1.5722549729       -4.5770291601
 H         -2.5374244129        1.6619107077       -2.2357414010
 H         -0.0976385115       -1.8783434668        1.2679196938
 C         -0.2391671717        1.5342686225        0.2263119280
 H         -0.5068287114        2.3330831463       -0.4645379339
 H         -0.6683058540        1.6932434546        1.2154195203
 C          1.1898283004        1.2861123017        0.2682453159
 C          1.7315851944        0.6685925271        1.3497829245
 H          1.0429111319        0.3128848880        2.1062403861
 C          1.9936593281        1.7414580024       -0.9161504809
 H          1.3839082169        1.7078784961       -1.8144809361
 H          2.3093526222        2.7743933505       -0.7733837967
 H          2.8768906276        1.1249335240       -1.0570244307
 C          3.1188408437        0.3313743972        1.6021309567
 C          4.1941175227        1.1396416043        1.2223638624
 C          3.3957082513       -0.8548396151        2.2931193737
 C          5.4945565045        0.7589352490        1.4983670259
 H          4.0099998524        2.0904057256        0.7499881622
 C          4.6961016626       -1.2402118721        2.5492774984
 H          2.5741985223       -1.4847727093        2.5999323928
 C          5.7534329429       -0.4357972526        2.1504290399
 H          6.3129465200        1.4007024226        1.2052120575
 H          4.8893229007       -2.1676830795        3.0688301037
 H          6.7708891022       -0.7331990569        2.3576544338

-H -C -N -O -S -Br -F -Cl 0
6-31G(d)
****
-Co 0
lanl2dz
****

-Co 0
lanl2dz

