%nproc=16
%mem=60GB
# B3LYP/genecp em=GD3BJ int=fine
scrf=(smd,solvent=acetone)

Template

0 1
 Co        -1.2990810827       -0.0652947113       -0.4044487684
 N         -2.8396665698        0.9977855213       -0.5273199974
 O         -3.1013187846        1.9236378792       -1.4942560205
 C         -3.7210093389        0.7965267433        0.3987856684
 C         -5.0310314639        1.5039237594        0.4674173994
 H         -5.8391713231        0.7936304426        0.6240665276
 H         -5.1960633910        2.0563124405       -0.4540132753
 H         -5.0261751385        2.2035407139        1.3017715853
 N         -2.1190755934       -0.6500748988        1.1982643987
 O         -1.5943508790       -1.5103052014        2.0153647286
 C         -3.3123843421       -0.1633436381        1.3955127083
 C         -4.1751507229       -0.5366822770        2.5584444102
 H         -5.0862464870       -1.0294588092        2.2219682548
 H         -4.4512267250        0.3470280865        3.1301107030
 H         -3.6178836744       -1.2198130922        3.1963986663
 N          0.0797328435       -1.3485554660       -0.4027065872
 O          0.4232673045       -2.1639920637        0.6341694062
 C          0.7155832948       -1.4627729310       -1.5232779096
 C          1.8144676275       -2.4409904551       -1.7602103183
 H          2.7683343694       -1.9172795372       -1.8007633045
 H          1.6682021460       -2.9586302538       -2.7050370704
 H          1.8456374210       -3.1583522523       -0.9442203168
 N         -0.6464380721        0.2930242233       -2.1278772207
 O         -1.1257366696        1.2116692112       -2.9082509867
 C          0.2866324831       -0.5240770827       -2.5308857633
 C          0.8850472437       -0.4790779060       -3.9004738094
 H          0.4567089687        0.3645070845       -4.4380466086
 H          0.6660188069       -1.3946696987       -4.4482319804
 H          1.9649000089       -0.3613730429       -3.8425484380
 H         -2.3384974244        1.7907916888       -2.1838940562
 H         -0.3218331603       -2.0007092313        1.3364644733
 C         -0.2897783392        1.4647543557        0.4720096839
 H         -0.6346099815        2.3429824566       -0.0725576320
 H         -0.6719516842        1.4413896358        1.4924166566
 C          1.1516310726        1.3074090549        0.4100999619
 C          1.7864342630        0.5810696616        1.3654666702
 H          1.1620490325        0.0868177799        2.0992428029
 C          1.8618719579        1.9820553301       -0.7284222419
 H          1.2100460855        2.0411173181       -1.5950795041
 H          2.1228209020        3.0017161562       -0.4466360876
 H          2.7721225693        1.4545140093       -0.9989498690
 C          3.2003181979        0.2854106684        1.4935689292
 C          4.2159138179        1.1940265533        1.1841088500
 C          3.5660598750       -0.9763891371        1.9790218329
 C          5.5452412169        0.8407348234        1.3284505857
 H          3.9641351018        2.1942389482        0.8721121546
 C          4.8942266098       -1.3311962847        2.1026207831
 H          2.7895098346       -1.6848101778        2.2275821504
 C          5.8915225823       -0.4241716090        1.7753354098
 H          6.3175580208        1.5588000972        1.0929280036
 H          5.1565562488       -2.3156018600        2.4625234077
 H          6.9310059369       -0.6984292479        1.8794848290

-H -C -N -O -S -Br -F -Cl 0
6-31G(d)
****
-Co 0
lanl2dz
****

-Co 0
lanl2dz

