%nproc=16
%mem=60GB
# B3LYP/genecp em=GD3BJ int=fine
scrf=(smd,solvent=acetone)

Template

0 1
 Co        -1.0669162737       -0.6420999096       -0.5537939511
 N         -0.8058918918        1.1900650661       -0.1979983752
 O          0.0550886232        2.0215555471       -0.8488813186
 C         -1.5598042730        1.6760634550        0.7340348274
 C         -1.5520762893        3.1065351003        1.1525028746
 H         -2.5125891560        3.5683319905        0.9293654146
 H         -0.7659400239        3.6361893606        0.6210380001
 H         -1.3824442681        3.1811117745        2.2240229048
 N         -2.2600017788       -0.5123803510        0.8963940606
 O         -2.9442058114       -1.5099977957        1.3651785236
 C         -2.4145714895        0.6966273610        1.3601118775
 C         -3.3717149470        1.0435945430        2.4554862701
 H         -2.8386889396        1.4277844640        3.3234555740
 H         -3.9139941498        0.1439645881        2.7397630205
 H         -4.0798795303        1.8006271983        2.1237138832
 N         -1.5554719337       -2.3742235664       -1.0828039327
 O         -2.3356914943       -3.2413480066       -0.3769023000
 C         -1.1157258698       -2.7352048262       -2.2453234935
 C         -1.4223611775       -4.0483965692       -2.8802697587
 H         -0.5226729946       -4.6607561100       -2.9101718268
 H         -1.7694652271       -3.9050082921       -3.9006967059
 H         -2.1820971611       -4.5654714742       -2.3001960287
 N         -0.0800395983       -0.6808479503       -2.1644840515
 O          0.6799920335        0.2849219486       -2.5791488989
 C         -0.2627482548       -1.7574512655       -2.8765924797
 C          0.3706014755       -1.9811514884       -4.2126531790
 H          1.0122797838       -1.1315367964       -4.4372591877
 H         -0.3867555296       -2.0690898945       -4.9901692443
 H          0.9664457192       -2.8915965848       -4.2067256601
 H          0.4380753749        1.4323990950       -1.6110455837
 H         -2.6670874037       -2.6829497688        0.4321619663
 C          0.4488948551       -1.3967787480        0.5603841116
 H         -0.0477386817       -2.1053842140        1.2224153260
 H          1.0704084448       -1.9017275384       -0.1788833037
 C          1.1634054908       -0.3593006975        1.2799139618
 C          2.1684466264        0.3133301267        0.6605624234
 H          2.3289404390        0.0929280583       -0.3876726354
 C          0.7319011492       -0.0925419846        2.6937012852
 H          1.2849404576       -0.7355967019        3.3774966773
 H          0.9060674464        0.9430151222        2.9718971603
 H         -0.3233749662       -0.3235850914        2.8087547519
 C          3.0197370969        1.3640754112        1.1805653787
 C          3.4572118223        2.3570877416        0.2946185451
 C          3.4584941077        1.4256053313        2.5066145661
 C          4.2559903456        3.3953917033        0.7287541142
 H          3.1375625389        2.3157258462       -0.7358836140
 C          4.2742868633        2.4575635217        2.9327648900
 H          3.1983078270        0.6394316815        3.1956444454
 C          4.6662013184        3.4532064204        2.0526031687
 H          4.5683178824        4.1605716703        0.0327482963
 H          4.6101900691        2.4838799079        3.9594339613
 H          5.2971250014        4.2617428510        2.3914161940

-H -C -N -O -S -Br -F -Cl 0
6-31G(d)
****
-Co 0
lanl2dz
****

-Co 0
lanl2dz

