%nproc=16
%mem=60GB
# B3LYP/genecp em=GD3BJ int=fine
scrf=(smd,solvent=acetone)

Template

0 1
 Co        -1.0078091827       -0.4798708563       -0.7826220005
 N         -1.2328002511        1.3565487257       -0.4379666886
 O         -1.2985523130        2.3495143241       -1.3743058538
 C         -1.3361366702        1.6728382635        0.8125207761
 C         -1.5394283568        3.0638016597        1.3070881019
 H         -1.7123440216        3.7300517327        0.4659630035
 H         -0.6534828589        3.3931660718        1.8475885571
 H         -2.3860757652        3.1036934411        1.9887851773
 N         -0.9505199549       -0.5758628780        1.1098380080
 O         -0.7729007518       -1.6723131909        1.7827602483
 C         -1.1966062813        0.5542988111        1.7109096347
 C         -1.2887411498        0.6975155177        3.1962210257
 H         -1.1264646927       -0.2782880536        3.6494099161
 H         -2.2701593685        1.0669909611        3.4893971483
 H         -0.5344487681        1.3927305254        3.5596625612
 N         -1.0310469800       -2.3314563608       -1.0786558587
 O         -0.7613500651       -3.3008932587       -0.1582206850
 C         -1.3590206694       -2.6860811433       -2.2802255440
 C         -1.4776881921       -4.1031841577       -2.7263975629
 H         -2.4189061177       -4.2591055373       -3.2480312482
 H         -1.4174278706       -4.7634359398       -1.8650343977
 H         -0.6660056274       -4.3416042768       -3.4120290271
 N         -1.3895190511       -0.4109362825       -2.6208779681
 O         -1.5422886882        0.6901080565       -3.2821036470
 C         -1.5809874193       -1.5763216376       -3.1736934868
 C         -1.9741277847       -1.7547702391       -4.6052714367
 H         -2.0026152916       -0.7759042524       -5.0794882754
 H         -2.9584195171       -2.2144515643       -4.6825773295
 H         -1.2559228483       -2.3866019727       -5.1235373952
 H         -1.3838490721        1.8424828747       -2.2687517238
 H         -0.7081992102       -2.7873729928        0.7394383173
 C          0.9616315716       -0.2805093013       -1.2066900939
 H          1.2148916523       -1.1816892633       -1.7634329843
 H          0.9855169824        0.6027600516       -1.8438530296
 C          1.7286626068       -0.1272731457        0.0148150881
 C          2.0001554516        1.1257680378        0.4673693987
 H          1.6765650568        1.9501125545       -0.1573740675
 C          2.2412642281       -1.3754597064        0.6704726992
 H          1.5189072117       -1.7547110149        1.3921284672
 H          2.3919997414       -2.1526023883       -0.0745535093
 H          3.1795121249       -1.1874323372        1.1851305469
 C          2.7079220332        1.5352913824        1.6620026282
 C          3.3968322332        2.7557436813        1.6453076520
 C          2.6954098922        0.8045727810        2.8546740176
 C          4.0821830283        3.2027242674        2.7566222476
 H          3.4010246324        3.3427868475        0.7380021953
 C          3.3696132510        1.2640848819        3.9707106261
 H          2.1170992888       -0.1014777022        2.9208659022
 C          4.0763780470        2.4552908358        3.9253052856
 H          4.6187939046        4.1396239246        2.7175972306
 H          3.3409584267        0.6894526352        4.8852768686
 H          4.6084797412        2.8058803236        4.7972079095

-H -C -N -O -S -Br -F -Cl 0
6-31G(d)
****
-Co 0
lanl2dz
****

-Co 0
lanl2dz

