%nproc=16
%mem=60GB
# B3LYP/genecp em=GD3BJ int=fine
scrf=(smd,solvent=acetone)

Template

0 1
 Co        -1.3108419070       -0.0695260025       -0.3758573859
 N         -2.8248842466        1.0284619152       -0.5337166879
 O         -3.0227191926        1.9937985263       -1.4774483124
 C         -3.7535932895        0.8116814539        0.3411752176
 C         -5.0538858041        1.5394094548        0.3709534012
 H         -5.1605012295        2.1331277866       -0.5332614671
 H         -5.0834118054        2.2023905548        1.2341980263
 H         -5.8802692082        0.8374498306        0.4532204693
 N         -2.2153437305       -0.6878774582        1.1680897065
 O         -1.7453137904       -1.5843432759        1.9791371332
 C         -3.4099633019       -0.1887086655        1.3223181331
 C         -4.3360640285       -0.5872040596        2.4267225837
 H         -4.6283498871        0.2810478773        3.0137065872
 H         -3.8219243667       -1.3001532408        3.0681692725
 H         -5.2357496191       -1.0537324348        2.0279333181
 N          0.0410742071       -1.3786073011       -0.3530236373
 O          0.3313460640       -2.2237233023        0.6770244049
 C          0.7085298754       -1.4857816063       -1.4558605244
 C          1.7859225121       -2.4893725904       -1.6852356806
 H          1.7891360389       -3.2131342121       -0.8744688669
 H          2.7527491352       -1.9893409513       -1.7137995955
 H          1.6366832436       -2.9973551535       -2.6350551441
 N         -0.5834350319        0.3217503687       -2.0606994489
 O         -1.0092297221        1.2735649633       -2.8322909506
 C          0.3396883706       -0.5114153476       -2.4531304986
 C          0.9861756554       -0.4493905080       -3.7999017790
 H          0.5999959815        0.4189489570       -4.3298366016
 H          0.7618258970       -1.3448260777       -4.3779850241
 H          2.0661492839       -0.3633981502       -3.7023007001
 H         -2.2349010654        1.8646583622       -2.1387164313
 H         -0.4403625857       -2.0701826164        1.3509223131
 C         -0.2976749701        1.3986613187        0.6009986050
 H         -0.6825193485        2.3118150587        0.1485150172
 H         -0.6434575755        1.2731618186        1.6269018127
 C          1.1446770796        1.2926751432        0.4807830440
 C          1.8335577685        0.5289517790        1.3677406270
 H          1.2478155233       -0.0315797803        2.0855279992
 C          1.7941174248        2.0646104091       -0.6317677359
 H          2.7024933177        1.5781377956       -0.9758956177
 H          1.1075372651        2.1715987771       -1.4663327378
 H          2.0460192340        3.0670351607       -0.2869358338
 C          3.2584614197        0.2742925196        1.4434648575
 C          4.2396298158        1.2201285703        1.1330635345
 C          3.6747088955       -0.9906338883        1.8791311947
 C          5.5818036298        0.8989960227        1.2231788233
 H          3.9529152496        2.2229036948        0.8632442785
 C          5.0149501279       -1.3126305556        1.9489407489
 H          2.9261959400       -1.7269996790        2.1332676690
 C          5.9765166306       -0.3692694155        1.6172257024
 H          6.3264422168        1.6452842880        0.9863281178
 H          5.3150928990       -2.2996433083        2.2700251085
 H          7.0257736557       -0.6180744937        1.6778980817

-H -C -N -O -S -Br -F -Cl 0
6-31G(d)
****
-Co 0
lanl2dz
****

-Co 0
lanl2dz

