%nproc=16
%mem=60GB
# B3LYP/genecp em=GD3BJ int=fine
scrf=(smd,solvent=acetone)

Template

0 1
 Co        -1.0869121029       -0.6358771300       -0.5187212858
 N         -0.8833321833        1.2007737349       -0.1532942064
 O         -0.0011618005        2.0485814614       -0.7530993727
 C         -1.7091740163        1.6752222592        0.7223438491
 C         -1.7662624110        3.1089164560        1.1259803844
 H         -1.6481794305        3.1982001491        2.2034284826
 H         -2.7301918052        3.5368494798        0.8554358458
 H         -0.9740797768        3.6593461701        0.6255693285
 N         -2.3685875667       -0.5276601151        0.8571927796
 O         -3.0568553980       -1.5383247210        1.2904780536
 C         -2.5783846345        0.6799681016        1.3023349191
 C         -3.6087402847        1.0109527013        2.3345338767
 H         -3.1408962075        1.4240581128        3.2264088093
 H         -4.1386581555        0.0982340773        2.5997485010
 H         -4.3196750011        1.7400491598        1.9500262320
 N         -1.5135961909       -2.3773230251       -1.0725547492
 O         -2.3218278123       -3.2569919084       -0.4153842592
 C         -0.9980172969       -2.7308420246       -2.2058627072
 C         -1.2437835490       -4.0488563147       -2.8572350707
 H         -0.3341518711       -4.6467562248       -2.8310621369
 H         -1.5296557227       -3.9110183648       -3.8973396691
 H         -2.0295151778       -4.5780831948       -2.3245035490
 N         -0.0032110293       -0.6589493473       -2.0651249032
 O          0.7639702910        0.3187557530       -2.4352571840
 C         -0.1245210244       -1.7391337961       -2.7850793339
 C          0.5923679638       -1.9525453973       -4.0800894141
 H          1.2311279012       -1.0916766725       -4.2671032592
 H         -0.1148384068       -2.0545884355       -4.9018506929
 H          1.2029007632       -2.8522140440       -4.0365579935
 H          0.4435733833        1.4653764210       -1.4847532576
 H         -2.7071290781       -2.7057436093        0.3740632317
 C          0.3725763575       -1.3607664037        0.6867483482
 H         -0.1684633496       -1.9938814684        1.3891674217
 H          0.9895760295       -1.9482344753        0.0071243307
 C          1.1116055967       -0.2957449152        1.3368289106
 C          2.1655191809        0.2722874224        0.6930854787
 H          2.3403099831       -0.0490549486       -0.3262903092
 C          0.6500776196        0.1152529811        2.7057369217
 H         -0.4149508272       -0.0739467059        2.8086085938
 H          1.1640625919       -0.4747376200        3.4638079291
 H          0.8473954321        1.1677315602        2.8887579963
 C          3.0631339056        1.3175976363        1.1373835835
 C          3.6152229436        2.1635558732        0.1659551842
 C          3.4449318918        1.5097910312        2.4688710388
 C          4.4691037747        3.1890550246        0.5168238501
 H          3.3442544796        2.0170006736       -0.8691190513
 C          4.3149539793        2.5276579864        2.8136978167
 H          3.0971335492        0.8337033176        3.2316917254
 C          4.8207506121        3.3795275854        1.8451548126
 H          4.8704560309        3.8397292301       -0.2467456520
 H          4.6043298089        2.6556332574        3.8468898342
 H          5.4944990219        4.1776468204        2.1202072341

-H -C -N -O -S -Br -F -Cl 0
6-31G(d)
****
-Co 0
lanl2dz
****

-Co 0
lanl2dz

