%nproc=16
%mem=60GB
# B3LYP/genecp em=GD3BJ int=fine
scrf=(smd,solvent=acetone)

Template

0 1
 Co        -1.1642246251       -0.6084389953       -0.4202716771
 N         -1.1737799105        1.2567476153       -0.2164042008
 O         -0.2676524017        2.1334481507       -0.7374261297
 C         -2.1711167020        1.7247227954        0.4643982463
 C         -2.4167238795        3.1773423022        0.6970604085
 H         -2.3942823928        3.3936064530        1.7635190049
 H         -3.3985388524        3.4559987770        0.3190963499
 H         -1.6542452206        3.7638588055        0.1910115815
 N         -2.6554156238       -0.5083265682        0.7314530674
 O         -3.3125224485       -1.5397295018        1.1609516985
 C         -3.0344013633        0.7072042147        1.0115456503
 C         -4.2339085382        1.0272833731        1.8448495426
 H         -4.9431917787        1.6352476397        1.2859195560
 H         -3.9433151085        1.5722379892        2.7411166155
 H         -4.7125509326        0.0938543140        2.1340125978
 N         -1.3560471218       -2.4291413263       -0.8523067376
 O         -2.1824028006       -3.3244184878       -0.2385250411
 C         -0.6315707119       -2.8294558893       -1.8473036119
 C         -0.6518701011       -4.2197734512       -2.3851146716
 H         -0.7688558171       -4.2070697591       -3.4661248701
 H         -1.4685561008       -4.7747419246       -1.9308076035
 H          0.2874032994       -4.7182945715       -2.1505930049
 N          0.1427739084       -0.6595836878       -1.7797205089
 O          0.8490802898        0.3594791006       -2.1524770643
 C          0.2312703696       -1.8089038977       -2.3903878255
 C          1.1521278506       -2.0592035561       -3.5422029077
 H          1.7543499150       -1.1668187729       -3.7011564363
 H          0.5889796088       -2.2715023197       -4.4500149454
 H          1.8045682244       -2.9049506698       -3.3354268462
 H          0.3281880645        1.5455107372       -1.3479134347
 H         -2.7270405973       -2.7485750717        0.4276027255
 C          0.1339914068       -1.0701812348        1.0696635056
 H         -0.5216217235       -1.3855404463        1.8799336410
 H          0.6908990800       -1.9110331265        0.6576339894
 C          0.9890942632        0.0473554702        1.4176066652
 C          2.1993879638        0.1659857202        0.8110574376
 H          2.4782793945       -0.6146871320        0.1141199067
 C          0.5296056951        0.9728182021        2.5089199875
 H          0.0343755961        1.8489980405        2.0981209778
 H         -0.1793804473        0.4628358683        3.1562034753
 H          1.3770544866        1.3094222745        3.1008247755
 C          3.2218487062        1.1736330837        1.0064039189
 C          2.9400916362        2.5150118335        1.2801535464
 C          4.5641966426        0.7948178213        0.8764842108
 C          3.9627017581        3.4301754280        1.4469514276
 H          1.9172568444        2.8497953434        1.3087004671
 C          5.5825695015        1.7076602077        1.0615443763
 H          4.7999756233       -0.2342686979        0.6455697683
 C          5.2862577942        3.0307946492        1.3538870409
 H          3.7262759362        4.4650673524        1.6480015955
 H          6.6120457654        1.3920497222        0.9714685858
 H          6.0823634707        3.7471702515        1.4938356707

-H -C -N -O -S -Br -F -Cl 0
6-31G(d)
****
-Co 0
lanl2dz
****

-Co 0
lanl2dz

