%nproc=16
%mem=60GB
# B3LYP/genecp em=GD3BJ int=fine
scrf=(smd,solvent=acetone)

Template

0 1
 Co        -1.3308871472       -0.1090957032       -0.3124421631
 N         -2.6184493889        1.2107537577       -0.6665573082
 O         -2.4862123347        2.2460930562       -1.5449554683
 C         -3.7236636382        1.0907511418       -0.0042693991
 C         -4.8882847107        2.0085374362       -0.1540798001
 H         -5.0022488793        2.6066932976        0.7485784169
 H         -5.8032959696        1.4400736308       -0.3025651874
 H         -4.7235012563        2.6721739490       -0.9989109587
 N         -2.6109780753       -0.6841592067        0.9527552391
 O         -2.4562511254       -1.7067656713        1.7340414805
 C         -3.7286300253       -0.0125713881        0.9251913215
 C         -4.9076134830       -0.3381029199        1.7854352448
 H         -5.1934854938        0.5234434158        2.3852899582
 H         -4.6386161896       -1.1628384228        2.4423135453
 H         -5.7609805030       -0.6338180380        1.1768578802
 N         -0.1969991172       -1.5997321997       -0.1491107995
 O         -0.2618825291       -2.5636720270        0.8162375507
 C          0.6954369205       -1.7109612083       -1.0802776156
 C          1.6605952263       -2.8420445505       -1.1816140248
 H          1.6094965058       -3.2942061928       -2.1697536900
 H          1.4323919081       -3.5884425880       -0.4252561877
 H          2.6737278292       -2.4738817758       -1.0300737948
 N         -0.1903251153        0.3006940360       -1.7573990030
 O         -0.3111449251        1.3588178343       -2.4952853373
 C          0.7030745125       -0.6132473186       -2.0136871334
 C          1.6722838600       -0.5249162115       -3.1485509900
 H          2.6957061747       -0.5498141359       -2.7793324498
 H          1.5027056971        0.4116672608       -3.6757403941
 H          1.5344201217       -1.3533006547       -3.8417280866
 H         -1.5928642958        2.0523457072       -2.0325499833
 H         -1.1356482146       -2.3420833594        1.3324506246
 C         -0.3777771983        1.1672288523        0.9425678768
 H         -0.3491353262        2.0855710863        0.3572123934
 H         -1.0532137870        1.2510985232        1.7930697874
 C          0.9422591246        0.6878365660        1.3050881094
 C          2.0060107705        1.0648730145        0.5464872240
 H          1.8045285176        1.7565213973       -0.2629275152
 C          1.0638492538       -0.1356810810        2.5541847354
 H          0.9866513285       -1.1985053981        2.3334402278
 H          2.0159216103        0.0479593789        3.0450082796
 H          0.2570460146        0.1096915608        3.2401877460
 C          3.4032445010        0.7109433683        0.6791587982
 C          4.3652834259        1.6152640844        0.2082753645
 C          3.8501147250       -0.5075156791        1.2013326741
 C          5.7134452948        1.3345197106        0.2978544878
 H          4.0381900276        2.5532893982       -0.2171344275
 C          5.2011196246       -0.7916805452        1.2748363893
 H          3.1364093255       -1.2521999173        1.5103505304
 C          6.1393712344        0.1295485826        0.8373191676
 H          6.4376390675        2.0524300756       -0.0591213747
 H          5.5253500877       -1.7416712433        1.6745518675
 H          7.1938518469       -0.0935070083        0.9042858682

-H -C -N -O -S -Br -F -Cl 0
6-31G(d)
****
-Co 0
lanl2dz
****

-Co 0
lanl2dz

